  5
 
 C         -1.9255380891        0.0002122563        0.0006824826
 I          0.2278409098       -0.0003526316       -0.0011835029
 H         -2.2570221008        0.4981340491       -0.9008338760
 H         -2.2569328919       -1.0295026597        0.0197966219
 H         -2.2577586396        0.5316206441        0.8825030644
           5
         -7.47680429
 C         -1.9191400647       -0.0000357581       -0.0000608418
 I          0.2352791795        0.0000004689        0.0000011516
 H         -2.2512260645       -0.7711685204       -0.6821943059
 H         -2.2513552712       -0.2053194877        1.0092066107
 H         -2.2512586448        0.9768550909       -0.3264322597
