  33
 
 C          6.3919734431       -0.3857788369        0.0012876612
 C          5.1324498021        0.4725660588       -0.0010849006
 C          3.8647306107       -0.3787459981        0.0015646819
 C          2.5975614947        0.4729121320        0.0016706947
 C          1.3321095704       -0.3817229499        0.0060035349
 C          0.0641644553        0.4689708184        0.0053916892
 C         -1.2010051683       -0.3862833526        0.0021601704
 C         -2.4669625129        0.4671566791       -0.0003915719
 C         -3.7298909669       -0.3884806770        0.0015236843
 C         -4.9949041059        0.4641377541       -0.0038705011
 O         -6.1209502843       -0.3924733216        0.0006286171
 H          7.2816835310        0.2391193662       -0.0020290700
 H          6.4174639973       -1.0258719702       -0.8778176712
 H          6.4189872080       -1.0186509600        0.8855535006
 H          5.1327649236        1.1203182949        0.8785032107
 H          5.1325074207        1.1152062719       -0.8844264211
 H          3.8640602018       -1.0257004911       -0.8789228996
 H          3.8660339221       -1.0232946250        0.8838154105
 H          2.5953465111        1.1163864269       -0.8813448142
 H          2.5984300151        1.1211234170        0.8812278489
 H          1.3318909186       -1.0298411122       -0.8734636336
 H          1.3343847214       -1.0250599465        0.8889519432
 H          0.0645941995        1.1157531300       -0.8750244212
 H          0.0619857185        1.1133221669        0.8875653288
 H         -1.2029278136       -1.0321923776        0.8828446512
 H         -1.1989399608       -1.0310725989       -0.8793133050
 H         -2.4675337084        1.1097432429       -0.8837724516
 H         -2.4680545706        1.1144698012        0.8795101906
 H         -3.7473113871       -1.0369713986       -0.8762705675
 H         -3.7497774063       -1.0292089212        0.8849400572
 H         -5.0058643211        1.1010809907       -0.8990664702
 H         -5.0063658998        1.1114359239        0.8838135016
 H         -6.9289549003        0.1375320063        0.0001751339
          33
        -36.71673489
 C          6.3906025940       -0.3850813964       -0.0074350575
 C          5.1314108841        0.4736147316        0.0072084361
 C          3.8631637253       -0.3767949379       -0.0072496112
 C          2.5964181147        0.4756317557        0.0073366297
 C          1.3307964578       -0.3785568549       -0.0042680240
 C          0.0622224261        0.4714022165        0.0022728175
 C         -1.2008340569       -0.3867223388        0.0021225371
 C         -2.4708022889        0.4614951813        0.0016773878
 C         -3.7299814397       -0.4011329254        0.0045183039
 C         -4.9981796260        0.4523024396        0.0145725393
 O         -6.1821464616       -0.3143559760       -0.0620285401
 H          7.2803224460        0.2396629035        0.0027677173
 H          6.4167466213       -1.0066965492       -0.8996334538
 H          6.4171922639       -1.0361520650        0.8634712895
 H          5.1319819256        1.1037466248        0.8995047870
 H          5.1319509738        1.1337314153       -0.8631229490
 H          3.8630909900       -1.0072445143       -0.8996322348
 H          3.8632952177       -1.0375374657        0.8629520266
 H          2.5951409626        1.1350518958       -0.8638454304
 H          2.5971538537        1.1078109254        0.8984953546
 H          1.3337360214       -1.0146345910       -0.8924631976
 H          1.3306984838       -1.0336923709        0.8700071757
 H          0.0581793753        1.1203673642       -0.8764322293
 H          0.0627371129        1.1136004799        0.8859977460
 H         -1.1969773497       -1.0318409529        0.8835701592
 H         -1.1980320717       -1.0318521139       -0.8792049496
 H         -2.4760283651        1.1053653449       -0.8803156318
 H         -2.4746938505        1.1081445886        0.8820791592
 H         -3.7445190564       -1.0389970670       -0.8816347844
 H         -3.7234315449       -1.0488024705        0.8847142377
 H         -5.0203646253        1.1026306319       -0.8634635840
 H         -5.0161743669        1.0869836326        0.9116482490
 H         -6.2145334181       -0.9196855203        0.6918355166
