  15
     0.000000 !GC
 C          0.0000000000        0.0000000000        0.0000000000
 C          1.3849817218        0.0000000000        0.0000000000
 C          2.0789209913        1.1970220194        0.0000000000
 C          1.3946742618        2.4074464788        0.0127477266
 C          0.0043237892        2.3991309712       -0.0026381650
 C         -0.6889159754        1.2019997079       -0.0029851164
 C          2.1399883359        3.6981961950       -0.0598283671
 Cl         2.5281785647        4.2688652327        1.6196448700
 H         -0.5413472169       -0.9336418112       -0.0008236928
 H          1.9263356644       -0.9337744003       -0.0013403695
 H          3.1586914365        1.1959889031       -0.0142727068
 H         -0.5334670065        3.3349556152       -0.0226800930
 H         -1.7682676701        1.2068084893       -0.0075557165
 H          1.5493286332        4.4924851775       -0.5103509385
 H          3.0989665727        3.5940763709       -0.5616620335
