 xtb: 6.7.1 (edcfbbe)
          04032513553D

 13 13  0     0  0            999 V2000
   -2.4153   -0.0793   -0.0002 C   0  0  0  0  0  0  0  0  0  0  0  0
   -1.8415   -1.3402   -0.0001 C   0  0  0  0  0  0  0  0  0  0  0  0
   -0.4635   -1.4689   -0.0001 C   0  0  0  0  0  0  0  0  0  0  0  0
    0.3267   -0.3350   -0.0000 C   0  0  0  0  0  0  0  0  0  0  0  0
   -0.2322    0.9427   -0.0001 C   0  0  0  0  0  0  0  0  0  0  0  0
   -1.6214    1.0507   -0.0001 C   0  0  0  0  0  0  0  0  0  0  0  0
    0.5081    2.0704   -0.0000 O   0  0  0  0  0  0  0  0  0  0  0  0
    2.0729   -0.4965    0.0001 Cl  0  0  0  0  0  0  0  0  0  0  0  0
   -3.4882    0.0262   -0.0002 H   0  0  0  0  0  0  0  0  0  0  0  0
   -2.4592   -2.2232   -0.0002 H   0  0  0  0  0  0  0  0  0  0  0  0
   -0.0000   -2.4427   -0.0000 H   0  0  0  0  0  0  0  0  0  0  0  0
   -2.0487    2.0402   -0.0002 H   0  0  0  0  0  0  0  0  0  0  0  0
    1.4550    1.8502    0.0000 H   0  0  0  0  0  0  0  0  0  0  0  0
  1  2  4  0  0  0  0
  2  3  4  0  0  0  0
  3  4  4  0  0  0  0
  4  5  4  0  0  0  0
  1  6  4  0  0  0  0
  5  6  4  0  0  0  0
  5  7  1  0  0  0  0
  4  8  1  0  0  0  0
  1  9  1  0  0  0  0
  2 10  1  0  0  0  0
  3 11  1  0  0  0  0
  6 12  1  0  0  0  0
  7 13  1  0  0  0  0
M  END
