  42
 
 C         -4.3488718061        1.0981437618        2.7083113453
 C         -3.7744738249        1.0416190935        1.2981158340
 C         -2.7394095524       -0.0852614343        1.1975075037
 N         -1.9823032290        0.0110824640       -0.0331220338
 C         -2.7285614258        0.0663348255       -1.2732169872
 C         -3.6942410091       -1.1195954032       -1.3868250628
 C         -4.2500090391       -1.2091190448       -2.8028793308
 C         -0.6421439382        0.0507620521       -0.0234549537
 C          0.1110777055        0.8813923982       -0.9146391123
 C          1.4981608279        0.8891516422       -0.9218662120
 C          2.2053348040        0.1415278640       -0.0012051836
 C          1.5335737698       -0.6446835303        0.9113715791
 C          0.1482570789       -0.7292091577        0.8811325463
 N         -0.4113713186       -1.7896739583        1.6599854980
 O         -1.3942999274       -2.3679718036        1.2309603581
 O          0.1709146009       -2.1189721373        2.6817753393
 S          4.0001602727        0.2156684356        0.0120126169
 O          4.3860672179        1.5975125096       -0.2137082261
 O          4.4640426876       -0.3735619924        1.2542448997
 C          4.5367307315       -0.7915935842       -1.3726830017
 N         -0.5019075935        1.9139122974       -1.6933200708
 O         -1.5202691885        2.4316086102       -1.2711552782
 O          0.0709804837        2.2798741772       -2.7069381367
 H         -5.1009113080        1.8791543077        2.7747680617
 H         -4.8120924389        0.1500406445        2.9699938950
 H         -3.5700027210        1.3115204563        3.4366770340
 H         -3.2904461236        1.9891910158        1.0549503582
 H         -4.5858947021        0.8816107730        0.5906165834
 H         -2.0493688840        0.0255573314        2.0370617151
 H         -3.2250367894       -1.0624909507        1.2859779756
 H         -2.0229713198       -0.0008197422       -2.1041109847
 H         -3.2702510457        1.0132124327       -1.3650001580
 H         -3.1581698620       -2.0371270916       -1.1379362923
 H         -4.5210064577       -1.0082463129       -0.6877219414
 H         -4.9533804349       -2.0336444413       -2.8762425306
 H         -4.7675015149       -0.2906015180       -3.0686836892
 H         -3.4531740029       -1.3746895840       -3.5238138834
 H          2.0226577391        1.5424771349       -1.6030927155
 H          2.0938609450       -1.2325552738        1.6235526686
 H          5.6180740556       -0.7500988352       -1.4073524421
 H          4.1944670041       -1.8007066838       -1.1901620665
 H          4.1056768511       -0.3714401829       -2.2707757444
          42
        -73.77090249
 C         -3.0973360679       -0.2368412201       -2.9003981591
 C         -3.8358994001        0.5924009080       -1.8562988614
 C         -2.8793718889        1.1743825971       -0.8072815652
 N         -2.2115630796        0.1305658135       -0.0532372713
 C         -3.0907156820       -0.7833499772        0.6475995867
 C         -2.6240767513       -1.1015444591        2.0696957618
 C         -2.7177149029        0.1197741498        2.9792965311
 C         -0.8728565497        0.0564284970       -0.0142892594
 C         -0.1250642708       -1.1664998249        0.0389216704
 C          1.2648907345       -1.1823159077        0.0822127257
 C          1.9881416218       -0.0148913361       -0.0141546554
 C          1.3271253787        1.1961592024       -0.0710566882
 C         -0.0565541596        1.2397868621       -0.0181813787
 N         -0.5898993580        2.5396574852        0.2589185368
 O         -1.5601606681        2.6232143329        0.9905276786
 O          0.0044200766        3.5086031863       -0.1839402217
 S          3.7824195248       -0.0520520684       -0.0293813511
 O          4.2549789438        1.1043860466        0.7114077071
 O          4.2097844696       -1.3432722387        0.4766453646
 C          4.2527635473        0.1077988486       -1.7537845467
 N         -0.7129506064       -2.4561884773       -0.1197177538
 O         -1.7140817258       -2.5594144405       -0.8095546668
 O         -0.1443341917       -3.4168289322        0.3819915251
 H         -3.7911589271       -0.5756131221       -3.6645529735
 H         -2.3219651657        0.3539982369       -3.3830599895
 H         -2.6387621050       -1.1137477974       -2.4505783942
 H         -4.6098198501       -0.0141687506       -1.3906508374
 H         -4.3234910717        1.4388930076       -2.3413466901
 H         -2.1352240995        1.7605593061       -1.3488663461
 H         -3.4182408555        1.8424178860       -0.1266539244
 H         -3.2263606357       -1.7138468954        0.0805671180
 H         -4.0586487558       -0.2874026188        0.7159907396
 H         -3.2674042494       -1.8918410891        2.4587037561
 H         -1.6022304556       -1.4841144944        2.0810656489
 H         -2.3207421848       -0.1131642361        3.9635253241
 H         -2.1569053970        0.9587644631        2.5749183573
 H         -3.7534930998        0.4283721697        3.0935521286
 H          1.7853965697       -2.1261296942        0.1506663727
 H          1.8915126795        2.1166479607       -0.0735743206
 H          3.8348162195       -0.7371312863       -2.2835354509
 H          3.8604151923        1.0489822144       -2.1137851607
 H          5.3343908793        0.0969524329       -1.8000855031
