 xtb: 6.7.1 (edcfbbe)
          04032513513D

 13 13  0     0  0            999 V2000
   -2.4153   -0.0793    0.0000 C   0  0  0  0  0  0  0  0  0  0  0  0
   -1.8415   -1.3402    0.0000 C   0  0  0  0  0  0  0  0  0  0  0  0
   -0.4635   -1.4690    0.0001 C   0  0  0  0  0  0  0  0  0  0  0  0
    0.3268   -0.3351    0.0000 C   0  0  0  0  0  0  0  0  0  0  0  0
   -0.2322    0.9426    0.0000 C   0  0  0  0  0  0  0  0  0  0  0  0
   -1.6214    1.0507   -0.0000 C   0  0  0  0  0  0  0  0  0  0  0  0
    0.5082    2.0703    0.0000 O   0  0  0  0  0  0  0  0  0  0  0  0
    2.0730   -0.4962   -0.0000 Cl  0  0  0  0  0  0  0  0  0  0  0  0
   -3.4883    0.0262   -0.0003 H   0  0  0  0  0  0  0  0  0  0  0  0
   -2.4593   -2.2232   -0.0004 H   0  0  0  0  0  0  0  0  0  0  0  0
   -0.0002   -2.4427   -0.0002 H   0  0  0  0  0  0  0  0  0  0  0  0
   -2.0488    2.0401   -0.0005 H   0  0  0  0  0  0  0  0  0  0  0  0
    1.4551    1.8502    0.0000 H   0  0  0  0  0  0  0  0  0  0  0  0
  1  2  4  0  0  0  0
  2  3  4  0  0  0  0
  3  4  4  0  0  0  0
  4  5  4  0  0  0  0
  1  6  4  0  0  0  0
  5  6  4  0  0  0  0
  5  7  1  0  0  0  0
  4  8  1  0  0  0  0
  1  9  1  0  0  0  0
  2 10  1  0  0  0  0
  3 11  1  0  0  0  0
  6 12  1  0  0  0  0
  7 13  1  0  0  0  0
M  END
