  15
     0.000000 !GC
 C          0.0000000000        0.0000000000        0.0000000000
 C          1.5196362184        0.0000000000        0.0000000000
 C          1.8131669836        1.4933471682        0.0000000000
 C          0.9248491534        2.0191741481        1.1320215038
 C         -0.2817304201        1.0549002619        1.2442952722
 H         -0.4338052779       -0.9953638245        0.0769402862
 H         -0.3394533093        0.4505484206       -0.9349194287
 H          1.8985531653       -0.4540890640        0.9174607543
 H          1.9406447233       -0.5257113379       -0.8558083665
 H          2.8648119829        1.7250849953        0.1633199512
 H          1.5083977356        1.9209280918       -0.9562747828
 H          1.4911497281        2.0156374657        2.0638759335
 H          0.6079507254        3.0446733028        0.9470475098
 H         -0.2435350213        0.5420267742        2.2052466712
 H         -1.2354998659        1.5770067691        1.1953050548
