  15
     0.000000 !GC
 C          0.0000000000        0.0000000000        0.0000000000
 C          1.3854106851        0.0000000000        0.0000000000
 C          2.0787410873        1.1966508815        0.0000000000
 C          1.3917487658        2.4056785845       -0.0184637486
 C          0.0014438151        2.3991431432        0.0072795702
 C         -0.6908465417        1.2015434106        0.0062719681
 C          2.1373966359        3.6935910330       -0.0024593574
 Br         2.4450248289        4.3721562040       -1.8569854139
 H         -0.5402411636       -0.9339381541        0.0035550561
 H          1.9276131236       -0.9328536577       -0.0020772280
 H          3.1588656402        1.1967013442        0.0158599398
 H         -0.5372681118        3.3355194665        0.0316959090
 H         -1.7697255946        1.2068088978        0.0192321729
 H          3.1365986435        3.5935633605        0.4147559923
 H          1.5863778870        4.4906522392        0.4923374130
