13
 xtb: 6.7.1 (edcfbbe)
C           -2.41833842199197       -0.10039817036581        0.00001840103104
C           -1.83209748473030       -1.36363177853833        0.00000373224904
C           -0.44516626736050       -1.48011796753403       -0.00000381156044
C            0.34139235947352       -0.33580250020316       -0.00000056960491
C           -0.23500605159071        0.93839012828786        0.00001062156196
C           -1.62726439663330        1.04189268079590        0.00002329754953
O            0.58284514469670        2.03317546401847        0.00000324659925
Cl           2.09239061793807       -0.48526219361410       -0.00002944331598
H           -3.49841827701330        0.00160833029030        0.00002809943545
H           -2.44470952344134       -2.25828626196283       -0.00000683984619
H            0.02857292046726       -2.45556925502112       -0.00001772204019
H           -2.07573426203467        2.03158719461099        0.00003640824353
H            0.03337004603460        2.83048739434972        0.00001914036161
