  34
 
 C         -2.8010294191        3.0130981250       -0.9423418803
 C         -1.6260300544        2.0582866874       -1.0141362719
 O         -2.0734444086        0.7247683516       -1.3239772624
 P         -2.3103784886       -0.3420391821       -0.1724478634
 S         -3.5169545747        0.1478774955        1.2932843655
 O         -2.8186396934       -1.4983006427       -1.1355179606
 C         -3.6404944543       -2.5697556947       -0.6446898621
 C         -2.8575642358       -3.5302177979        0.2293999291
 S         -0.3657506792       -0.9062834413        0.4474599815
 C          0.3417678466       -1.2502346685       -1.2132681234
 S          1.1201166749        0.1898860435       -1.9815294644
 C          2.5059437352        0.3847034477       -0.8695323557
 C          2.5875624727        1.5247824037       -0.0867678202
 C          3.6461942078        1.6812113742        0.7902211922
 C          4.6098814599        0.6893544427        0.8696563206
 C          4.5399875475       -0.4479855195        0.0804984123
 C          3.4831472371       -0.5958734258       -0.7984018839
 Cl         5.9369077597        0.8770721343        1.9758912327
 H         -2.4353677278        4.0230439389       -0.7873019884
 H         -3.3676868407        2.9720568150       -1.8681589003
 H         -3.4571678819        2.7408437310       -0.1180266995
 H         -1.0758757759        2.0466527317       -0.0664688941
 H         -0.9463320318        2.3204981596       -1.8280282671
 H         -4.4780659153       -2.1401934631       -0.0855886899
 H         -4.0100519876       -3.0552640793       -1.5491244385
 H         -3.5012777662       -4.3533009870        0.5228315362
 H         -1.9966051622       -3.9211059237       -0.3067828272
 H         -2.5128749036       -3.0164551824        1.1266540668
 H         -0.4593126689       -1.5703339183       -1.8754163858
 H          1.0767318400       -2.0345007690       -1.0616879500
 H          1.8272669212        2.2856008708       -0.1630709746
 H          3.7190010560        2.5610881379        1.4080117249
 H          5.3047782531       -1.2040092111        0.1488267509
 H          3.4253901798       -1.4676802688       -1.4307028709
          34
        -56.77580526
 C         -0.2618333537       -1.2183631702        2.8116126172
 C          0.1654069103       -1.9805568229        1.5756685390
 O          0.0256255398       -1.2045318314        0.3643264816
 P         -1.3309322223       -0.6312411712       -0.2136677240
 S         -1.2328073816       -0.3902330486       -2.1558828125
 O         -2.3790987566       -1.7268524442        0.2775835012
 C         -3.6615183404       -1.9060122631       -0.3484633739
 C         -4.5657639887       -0.7017992752       -0.1830492097
 S         -1.8423624683        1.1065988295        0.8989493131
 C         -1.3022371458        2.4053867894       -0.2602397259
 S          0.2633320219        3.1889755225        0.2069397822
 C          1.3677186587        1.8010863862        0.0123943369
 C          1.5761645380        1.2406463290       -1.2379684641
 C          2.3994041262        0.1368204155       -1.3633450351
 C          3.0163274562       -0.3778547805       -0.2353497934
 C          2.8436206227        0.2006460074        1.0117105445
 C          2.0101078625        1.2971188404        1.1331050000
 Cl         4.0258267006       -1.7816832382       -0.3899413766
 H          0.2747088422       -0.2756849557        2.8792565217
 H         -1.3303070676       -1.0137139206        2.7785028679
 H         -0.0439274973       -1.8184773757        3.6895839439
 H         -0.4152408031       -2.8984654695        1.4635414770
 H          1.2306601379       -2.2175015537        1.5962370628
 H         -3.4997880805       -2.1200271664       -1.4097315263
 H         -4.0703737743       -2.7869545819        0.1488073121
 H         -4.6352417088       -0.4178884326        0.8639999422
 H         -4.1737244927        0.1395436371       -0.7524080480
 H         -5.5549932064       -0.9460061175       -0.5569769900
 H         -2.0522077012        3.1907928244       -0.2324724156
 H         -1.2287203769        1.9599993844       -1.2537881029
 H          1.0964365942        1.6548588249       -2.1115135584
 H          2.5497101032       -0.3202705732       -2.3282856662
 H          3.3437747171       -0.2078757186        1.8746599180
 H          1.8506291353        1.7653247296        2.0918575917
