  16
     0.000000 !GC
 C          0.0000000000        0.0000000000        0.0000000000
 C          1.3277137271        0.0000000000        0.0000000000
 C          2.2026744164        1.1671507566        0.0000000000
 C          3.5954323777        1.1820900479        0.0815513414
 C          4.2845490342        2.3789863727        0.0691057551
 C          3.6073590639        3.5852048396       -0.0258909829
 C          2.2253350989        3.5880340323       -0.1059661693
 C          1.5348298542        2.3909090939       -0.0894405168
 H         -0.5576423920       -0.9204499055        0.0042160677
 H         -0.5834627744        0.9042730407       -0.0011932211
 H          1.8502726995       -0.9491229160        0.0062097553
 H          4.1497141421        0.2625897729        0.1614087936
 H          5.3629343351        2.3738359965        0.1312507501
 H          4.1550461292        4.5154294545       -0.0354396402
 H          1.6871611962        4.5213083297       -0.1800074090
 H          0.4538702453        2.3872475088       -0.1597373854
