  14
     0.000000 !GC
 C          0.0000000000        0.0000000000        0.0000000000
 C          1.3729711266        0.0000000000        0.0000000000
 C          2.0823840662        1.2067607629        0.0000000000
 C          1.3872840470        2.4135804833        0.0001314276
 C          0.0063967527        2.4185112938        0.0000913697
 C         -0.6977382534        1.2145210641        0.0000373804
 C         -2.1046321717        1.2234823577        0.0005896618
 N         -3.2544995035        1.2296482037        0.0010198074
 O          3.4178878822        1.0333336156        0.0002993956
 H         -0.5476358541       -0.9295106149       -0.0001004718
 H          1.9527768635       -0.9070052856        0.0002418433
 H          1.9012081236        3.3646693863        0.0003682501
 H         -0.5357099235        3.3519720111        0.0005423275
 H          3.6558843186        0.0924047857        0.0006509335
