  5
 
 C          0.0002167216        0.8369200219       -0.0000610241
 Cl        -1.4616470163       -0.1772643604       -0.0000189483
 Cl         1.4618507743       -0.1776416283        0.0002199657
 H          0.0002283768        1.4370435753        0.9070064929
 H          0.0003835210        1.4367553020       -0.9073157335
           5
        -12.25003274
 C         -0.0000147519        0.8326076135       -0.0000003634
 Cl        -1.4617463078       -0.1817672728       -0.0000000386
 Cl         1.4617515169       -0.1817635712        0.0000000847
 H         -0.0000072113        1.4325870576        0.9071624811
 H         -0.0000002234        1.4325870306       -0.9071597748
