  13
     0.000000 !GC
 C          0.0000000000        0.0000000000        0.0000000000
 C          1.3859562256        0.0000000000        0.0000000000
 C          2.0656126075        1.2024157898        0.0000000000
 C          1.3821969146        2.4095895984        0.0004850965
 C          0.0045153297        2.4054676005       -0.0021929162
 C         -0.7004225445        1.2000420602       -0.0027668636
 O         -2.0441204116        1.3628820961       -0.0105136278
 Cl         3.8101046951        1.2040520801       -0.0032612075
 H         -0.5052833526       -0.9554683896       -0.0008240415
 H          1.9305076598       -0.9303293256       -0.0042442403
 H          1.9249358457        3.3403264455       -0.0083358267
 H         -0.5734528832        3.3133183437       -0.0097047985
 H         -2.2816580512        2.3035669005       -0.0058529119
