  41
 
 C          4.8186604615        2.0581550330       -0.2290405696
 C          3.9652386815        0.9496517755        0.3527963804
 O          2.7704801179        0.8487333250       -0.4394436520
 P          1.5596314884       -0.0777467453        0.0480164765
 S          2.0977109324       -1.9319881782        0.3859480712
 O          0.5258353426        0.1881562172       -1.1179115082
 C          0.4508139891       -0.7134411932       -2.2412916684
 C          1.5673435481       -0.4503863797       -3.2281373903
 S          0.7941497636        0.9999160911        1.7083046359
 C         -0.4890992430        2.0416719179        0.9394374844
 S         -2.1654398562        1.6415206531        1.5287325280
 P         -2.5350015343       -0.1822248832        0.5222020557
 S         -4.2474600320       -1.0031348175        0.9908929611
 O         -1.2238995488       -1.0527590284        0.7625326117
 C         -1.3094113600       -2.3870345926        1.3068985336
 C         -1.4874114808       -3.4059914184        0.2022156674
 O         -2.3492183521        0.1706335709       -1.0188809311
 C         -3.3640617073        0.9661692913       -1.6709759493
 C         -2.8787619973        1.3034065336       -3.0659415128
 H          5.7304624570        2.1482595543        0.3519471023
 H          5.0703523567        1.8312211601       -1.2607772960
 H          4.2768007177        2.9988301871       -0.1967755900
 H          3.6822842981        1.1645410905        1.3896477346
 H          4.4783989185       -0.0167321944        0.3250344734
 H          0.4966253749       -1.7414203047       -1.8677960490
 H         -0.5335973281       -0.5239325646       -2.6692982530
 H          1.4304822039       -1.0819555137       -4.1003110164
 H          1.5653788673        0.5930695880       -3.5310247596
 H          2.5269301171       -0.6818070666       -2.7686710033
 H         -0.4364540390        1.9378677404       -0.1396862891
 H         -0.3120362742        3.0643780380        1.2612809331
 H         -0.3671880422       -2.5326310621        1.8386333269
 H         -2.1455448782       -2.4291369718        2.0112880925
 H         -1.5809861303       -4.3935049766        0.6422642886
 H         -2.3881829079       -3.1796754534       -0.3660394173
 H         -0.6280917132       -3.3935822274       -0.4632311881
 H         -4.2894803017        0.3830626266       -1.6936218107
 H         -3.5376192606        1.8707735877       -1.0780091464
 H         -3.6237128291        1.9202093452       -3.5579894826
 H         -1.9404623447        1.8488786253       -3.0160557018
 H         -2.7327080341        0.3948628815       -3.6431953785
          41
        -65.03357667
 C          4.3653421000        2.2030971577        0.4625694439
 C          4.5984451048        0.7775120393        0.0055194954
 O          3.4631135689        0.2340939699       -0.6891006372
 P          2.0827535938       -0.0793237766        0.0378663622
 S          2.2691725066       -0.7724023583        1.8657309473
 O          1.3759496235       -1.0005078754       -1.0404502912
 C          1.5420662127       -2.4300974350       -1.0721707251
 C          2.9645068231       -2.8353303250       -1.3931693693
 S          1.0025196376        1.7028724446       -0.2330351931
 C         -0.1412750068        1.6426309603        1.1932757364
 S         -1.8753674221        1.6949018553        0.6982316927
 P         -2.0245919949       -0.2795466798       -0.0729489832
 S         -1.1500329671       -1.6791047612        0.9831995100
 O         -1.4704327596       -0.2390254113       -1.5480092777
 C         -1.6463331506        0.8260742124       -2.5163477707
 C         -3.0981005210        1.1822115800       -2.7473733317
 O         -3.5827237312       -0.5017934122       -0.2847240652
 C         -4.4460450176       -1.0021466968        0.7503986581
 C         -4.6003821280       -0.0239181325        1.8970687605
 H          4.0303798955        2.8176903585       -0.3691143002
 H          3.6066070413        2.2227459965        1.2438074562
 H          5.2904024195        2.6064699312        0.8615782297
 H          4.8187161116        0.1327513314        0.8624167155
 H          5.4055525333        0.7149801587       -0.7255646770
 H          1.2267210390       -2.8354048036       -0.1044516629
 H          0.8392757845       -2.7530743666       -1.8422006951
 H          3.6253681819       -2.5481201320       -0.5760314164
 H          3.0083134364       -3.9126536011       -1.5194295592
 H          3.2966382456       -2.3466787733       -2.3055190705
 H          0.0277042315        2.5303466324        1.7969606014
 H          0.0597875965        0.7314958018        1.7638017001
 H         -1.0783976353        1.6962390944       -2.1741796088
 H         -1.1803337136        0.4180911947       -3.4145745819
 H         -3.5264983591        1.6233258736       -1.8499006054
 H         -3.1572545087        1.9019339493       -3.5580814846
 H         -3.6676225969        0.2947322674       -3.0103959813
 H         -5.3929531860       -1.1723746959        0.2362103181
 H         -4.0411837071       -1.9538502251        1.1090178816
 H         -4.8829553243        0.9571651828        1.5240726437
 H         -5.3662004332       -0.3868053930        2.5750517985
 H         -3.6622240328        0.0635740522        2.4426074238
