  4
 
 C          0.6092462824       -0.0000670419        0.0003039938
 O         -0.5909812478        0.0002650009       -0.0001049684
 H          1.1920069997       -0.9310933502        0.0003820248
 H          1.1925244671        0.9306292277        0.0003819997
           4
         -7.17690885
 C          0.6003980372        0.0000006062        0.0000214836
 O         -0.5998296083       -0.0000001055       -0.0000052730
 H          1.1834168478       -0.9308641001       -0.0000861570
 H          1.1834181659        0.9308585497       -0.0000861572
