  14
     0.000000 !GC
 C          0.0000000000        0.0000000000        0.0000000000
 C          1.3880806035        0.0000000000        0.0000000000
 C          2.0727948212        1.1972569922        0.0000000000
 C          1.3728878738        2.4089265686       -0.0003001673
 C         -0.0230731278        2.4004640713        0.0005367766
 C         -0.7022589534        1.1969271904        0.0005069544
 C          2.0978882458        3.6720778179       -0.0020959677
 O          1.5942580533        4.7775936605       -0.0068499687
 H         -0.5361382852       -0.9362533477       -0.0012543569
 H          1.9311727413       -0.9319246786       -0.0067532236
 H          3.1522929658        1.2485586048       -0.0040192892
 H         -0.5778922684        3.3263910907       -0.0008081228
 H         -1.7810798312        1.1865503686       -0.0088318884
 H          3.1985724637        3.5672526353       -0.0135079695
