  5
 
 C          0.0001765282        0.0002123957       -0.5003055276
 Cl        -0.9821636998       -1.3568069193        0.0777761373
 Cl        -0.6839272602        1.5290475988        0.0781052622
 Cl         1.6661267443       -0.1720810536        0.0779710889
 H          0.0000907524        0.0002535010       -1.5918919913
           5
        -16.28547892
 C          0.0001468266        0.0000728978        0.5059777366
 Cl        -1.6700913959       -0.1288082393       -0.0722662331
 Cl         0.9465684949       -1.3818814205       -0.0722803385
 Cl         0.7234723767        1.5106642846       -0.0722893392
 H          0.0000274855        0.0000238611        1.5975641968
