  14
     0.000000 !GC
 C          0.0000000000        0.0000000000        0.0000000000
 C          1.4017284509        0.0000000000        0.0000000000
 C          2.0904764529        1.2152293122        0.0000000000
 C          1.3874532125        2.4206254093       -0.0692494123
 C         -0.0091365413        2.4170758170       -0.1038769094
 C         -0.7098412277        1.2107718842       -0.0348317430
 Cl        -2.4179447128        1.2362337326       -0.1610079412
 Cl        -0.8589851219        3.8942764131       -0.2204498212
 Cl         2.2346900997        3.8969196547       -0.1119015367
 Cl         3.7970757177        1.2302455878        0.0742341819
 Cl         2.2971805622       -1.4507411712        0.1670879301
 N         -0.7182731275       -1.2528513701        0.0364187584
 O         -1.4684899995       -1.4966734065       -0.8803152185
 O         -0.5273745703       -1.9821993952        0.9821337166
