  13
     0.000000 !GC
 C          0.0000000000        0.0000000000        0.0000000000
 C          1.5250145356        0.0000000000        0.0000000000
 C          1.8600684790        1.5029817499        0.0000000000
 O          0.6454547416        2.2565482077       -0.1015082179
 C         -0.4811276647        1.3853985093       -0.0729537902
 H         -0.4127694637       -0.4131594449        0.9186302507
 H         -0.4052018944       -0.5281441059       -0.8606857429
 H          1.9269396499       -0.5091978846        0.8733798529
 H          1.9186432843       -0.4748511961       -0.8970532313
 H          2.3657732483        1.8191676052        0.9180434961
 H          2.4969449860        1.7719244093       -0.8501552174
 H         -1.0852783931        1.6218097507        0.8110829175
 H         -1.0768862455        1.5521948472       -0.9747727421
